14
0.0
 C          0.1780116536        0.1439591651        0.0767959473
 H         -0.4732221193       -0.4346691605       -0.5725415936
 H          1.1935894004        0.1140036913       -0.3086389627
 H         -0.1786432286        1.1713010682        0.1063843766
 H          0.1644153918       -0.2800416213        1.0771061590
 O          2.0786004022       -0.8324584110        3.0706206061
 H          2.2502730350       -1.0317483584        3.9948528330
 H          2.0608921579        0.1418457568        3.0121656318
 O          2.4666492229        1.7729353622        2.1752087312
 H          2.9974745753        1.2745671246        1.5279223976
 H          1.7519235866        2.1557170961        1.6578253070
 O          3.6637072700       -0.3657252516        0.8141697267
 H          3.2650697256       -0.8439552418        1.5633585884
 H          4.5794475577       -0.6555862326        0.7827907660
