13
0.0
O 8.268044 10.783073 10.117501
N 9.386541 11.620399 10.436688
N 8.359823 9.40734 9.884481
O 10.52577 11.253619 10.065799
O 9.086369 12.796432 10.771404
O 9.3304 8.90024 10.425331
O 7.27465 8.823658 9.725801
O 9.749642 12.183527 7.39067
H 10.555377 12.319729 7.889722
H 10.049082 11.915591 6.521661
O 10.785064 11.798443 4.985356
H 11.395789 12.325561 4.469682
H 11.168816 10.921351 4.988452
